<?xml version="1.0" encoding="UTF-8"?>

<!-- generated on 2025-05-22 18:10:19 by Eclipse SUMO sumo Version 1.22.0
-->

<sumoConfiguration xmlns:xsi="http://www.w3.org/2001/XMLSchema-instance" xsi:noNamespaceSchemaLocation="http://sumo.dlr.de/xsd/sumoConfiguration.xsd">

    <input>
        <net-file value="ped250424.net.xml"/>
        <route-files value="ped250406.rou.xml"/>
    </input>

    <time>
        <step-length value="0.1"/>
    </time>

    <processing>
        <lateral-resolution value="0.2"/>
    </processing>

    <gui_only>
        <delay value="1000.00"/>
        <tracker-interval value="1"/>
    </gui_only>

</sumoConfiguration>
