<?xml version="1.0" encoding="UTF-8"?>
<configuration>
    <input>
        <net-file value="../network/simple.net.xml"/>
        <route-files value="../network/simple.rou.xml"/>
    </input>
    <time>
        <begin value="0"/>
        <end value="1000"/>
        <step-length value="0.1"/>
    </time>
    <gui_only>
        <start value="true"/>
        <delay value="1000"/>
    </gui_only>
</configuration>
